<?xml version="1.0" encoding="UTF-8"?>

<!-- generated on 2023-03-26 12:00:08.851785 by randomTrips.py v1_16_0+0975-7f84aba9f93
<configuration>
    <end value="50"/>
    <length value="True"/>
    <net-file value="map.net.xml"/>
    <route-file value="map.rou.xml"/>
</configuration>
-->

<!-- generated on 2023-03-26 12:00:08 by Eclipse SUMO duarouter Version 1.12.0
<configuration xmlns:xsi="http://www.w3.org/2001/XMLSchema-instance" xsi:noNamespaceSchemaLocation="http://sumo.dlr.de/xsd/duarouterConfiguration.xsd">

    <input>
        <net-file value="map.net.xml"/>
        <route-files value="trips.trips.xml"/>
    </input>

    <output>
        <output-file value="map.rou.xml"/>
        <alternatives-output value="NUL"/>
    </output>

    <time>
        <begin value="0"/>
        <end value="50"/>
    </time>

    <report>
        <no-warnings value="true"/>
        <ignore-errors value="true"/>
        <no-step-log value="true"/>
    </report>

</configuration>
-->

<routes xmlns:xsi="http://www.w3.org/2001/XMLSchema-instance" xsi:noNamespaceSchemaLocation="http://sumo.dlr.de/xsd/routes_file.xsd">
    <vehicle id="0" depart="0.00">
        <route edges="325254149#5 -1087209770#0 -329296739#1 -329296739#0 405621337#1 405621337#2 405621337#3 405621334#0 405621334#1 331973420 1006867455#0 1006867455#1 1006867455#2 329296735#0 329296735#1 329296735#2 329296735#3 329296735#4 329296735#5 329296735#6 329296735#7 329296735#8 329296735#9 1126005761#0 -62077652#5 -115977003#2 -106410245#9"/>
    </vehicle>
    <vehicle id="1" depart="1.00">
        <route edges="-329377919 -329377923#1 238180530#9 -329377933#0 -329377929"/>
    </vehicle>
    <vehicle id="2" depart="2.00">
        <route edges="329373550#1 405621335#2 397556478#0 397556478#1 1006864089 1006864090 405621336#0 405621336#1 405621336#2 405621336#3 405621336#4 405621336#5 405621332 405621337#0 405621337#1 405621337#2 405621337#3 405621334#0 405621334#1 331973420 1006867455#0 1006867455#1 1006867455#2 329296735#0 435326864 329347589#0 329347598#1 329347591#0 329347591#1"/>
    </vehicle>
    <vehicle id="3" depart="3.00">
        <route edges="735705814#0 735705814#1 735705814#2 -431683960#1 94415619#4 94415619#5 329296735#0 329296735#1 329296735#2 329296735#3 329296735#4 329296735#5 329296735#6 329296735#7 329296735#8 329296735#9 1126005761#0 -62077652#5 -62077652#4 -62077652#3 -62077652#2 -62077652#1 -62077652#0 329708217#0 329708217#1 -136306804 -136306803#1 -136306806"/>
    </vehicle>
    <vehicle id="4" depart="4.00">
        <route edges="-755398689#4 -94559216#6 -94559216#5 -94559216#4 -94559216#3 -94559216#2 -1087238485"/>
    </vehicle>
    <vehicle id="5" depart="5.00">
        <route edges="-329351510 -94415622 62077650#10 -329347588 -329347589#6 -329347589#5 -329347589#4 -329347589#3 -329347589#2 -329347589#1 -329347589#0 -435326864 329296735#1 329296735#2 329296735#3 329296735#4 329296735#5 329296735#6 329296735#7 329296735#8 329296735#9 1126005761#0 -62077652#5 -62077652#4 -115976997#1 115976997#1"/>
    </vehicle>
    <vehicle id="6" depart="6.00">
        <route edges="-106410247#1 106410247#1 106410247#2 106410247#3 329708208#0 329708208#1 115976993#0 115976995#0 115976995#1 115976995#2 115976995#3 115977003#0 -115976988 -1126005761#1 -1126005761#0 -329296735#9 -329296735#8 -329296735#7 -329296735#6 -329296735#5 -329296735#4 -329296735#3 -329296735#2 -329296735#1 -329296735#0 -1006867455#2 -1006867455#1 -1006867455#0 735705814#0 735705814#1 735705814#2 735705814#3 405621333 1006867456#0 -329373538 -329373539 -329373533#3 -329373533#2 -329373533#1"/>
    </vehicle>
    <vehicle id="7" depart="7.00">
        <route edges="329296735#5 329296735#6 329296735#7 329296735#8 329296735#9 1126005761#0 -62077652#5 -62077652#4 -62077652#3 -62077652#2 -62077652#1 -62077652#0 329708217#0 329708217#1 -136306804 -136306803#1 -136306806 136306805#1"/>
    </vehicle>
    <vehicle id="8" depart="8.00">
        <route edges="-329351510 -94415622 62077650#10 62077650#11 62077650#12 62077650#13 62077650#14 62077650#15 22702976#0 22702976#1 735705814#0 735705814#1 735705814#2 735705814#3 405621333 405621335#0 405621335#1 405621335#2 397556478#0 397556478#1 1006864089 1006864090 755398685#0 755398685#1 283464682#0 283464682#1 283464682#2 283464682#3 283464682#4 316453241#0 316453242"/>
    </vehicle>
    <vehicle id="9" depart="9.00">
        <route edges="397556482#1 397556487#0 397556487#1 397556483#0 397556483#1 405621336#0 405621336#1 405621336#2 405621336#3 405621336#4 405621336#5 405621332 1127492008#1 1006867456#0 1006867456#1 1006867457#0 1006867457#1 62077728#0 62077728#1 62077728#2 -62077649#2 -105828985"/>
    </vehicle>
    <vehicle id="10" depart="10.00">
        <route edges="333505340 325254149#0 397556493#1 397556493#2 397556493#3 397556493#4 405621336#1 405621336#2 405621336#3 405621336#4 405621336#5 405621332 405621337#0 405621337#1 405621337#2 405621337#3 405621334#0 405621334#1 325304814#0 325304814#1 325304814#2 325304814#3 -643879123 -62077650#15 94415627 329351515"/>
    </vehicle>
    <vehicle id="11" depart="11.00">
        <route edges="-329708217#0 62077652#0 62077652#1 62077652#2 62077652#3 62077652#4 62077652#5 -1126005761#0 -329296735#9 -329296735#8 -329296735#7 -329296735#6 -329296735#5 -329296735#4 -329296735#3 -329296735#2 -329296735#1 -329296735#0 -1006867455#2 -1006867455#1 -1006867455#0 735705814#0 735705814#1 735705814#2 735705814#3 405621333 -1127492008#1 -1127492008#0 -329296737#6 -329296737#5 -329296737#4 -329296737#3 -329296737#2 -329296753"/>
    </vehicle>
    <vehicle id="12" depart="12.00">
        <route edges="92879176#1 329377963 238180530#5 -92352821#1 92352809#0 92352809#1 92352809#2 92352809#3 92352809#4 92352809#5 92352809#6 92352809#7 92352809#8 397556487#0 397556487#1 397556483#0 397556483#1 755398685#0 755398685#1 283464682#0 283464682#1 283464682#2 283464682#3 283464682#4 643736105 755398689#0 755398689#1 755398689#2 755398689#3 755398689#4 755398689#5 1127492007#0 1127492007#1 1127492007#2 1127492007#3 1127492007#4 329296745#0 329296745#1 329296745#2 329296745#3 329296745#4 329296745#5 329296745#6 329296745#7 329296745#8 238180584#0 238180584#1 238180584#2 -642633116"/>
    </vehicle>
    <vehicle id="13" depart="13.00">
        <route edges="-136306805#1 136306806 136306803#1 136306804 -329708217#1 -329708217#0 62077652#0 62077652#1 62077652#2 62077652#3 62077652#4 62077652#5 -1126005761#0 -329296735#9 -329296735#8 -329296735#7 -329296735#6 -329296735#5 -329296735#4 -329296735#3 -329296735#2 -329296735#1 -329296735#0 -1006867455#2 -1006867455#1 -1006867455#0 735705814#0 735705814#1 735705814#2 735705814#3 405621333 405621335#0 405621335#1 405621335#2 397556478#0 397556478#1 1006864089 397556489#0 397556489#1 397556489#2 397556471 -238180530#13 -238180530#12 -238180530#11 -238180530#10 -238180530#9 -238180530#8 -238180530#7"/>
    </vehicle>
    <vehicle id="14" depart="14.00">
        <route edges="62077645#2 62077645#3 -740704861#1 -740704861#0 -1126005761#3 -1126005761#2 -1126005761#1 -1126005761#0 -329296735#9 -329296735#8 -329296735#7 -329296735#6 -329296735#5 -329296735#4 -329296735#3 -329296735#2 -329296735#1 -329296735#0 -1006867455#2 -1006867455#1 -1006867455#0 735705814#0 735705814#1 735705814#2 735705814#3 405621333 405621335#0 405621335#1 405621335#2 397556478#0 397556478#1 1006864089 1006864090 755398685#0 755398685#1 283464682#0 283464682#1 283464682#2 283464682#3 283464682#4 316453241#0 316453242"/>
    </vehicle>
    <vehicle id="15" depart="15.00">
        <route edges="333505340 325254149#0 397556493#1 397556493#2 397556493#3 397556493#4 405621336#1 405621336#2 405621336#3 405621336#4 405621336#5 405621332 1127492008#1 1006867456#0 -329373538 -329373539 -329373533#3 -329373540 -92352787 92352787 329373540"/>
    </vehicle>
    <vehicle id="16" depart="16.00">
        <route edges="1087238485 -94559216#1 94559216#1"/>
    </vehicle>
    <vehicle id="17" depart="17.00">
        <route edges="-62077674 -643736104 316536481#1 316536481#2 1006871846#0 1006871846#1 1006871846#2 397556493#0 397556493#1 397556493#2 397556493#3 397556493#4 405621336#1 405621336#2 405621336#3 405621336#4 405621336#5 405621332 405621337#0 405621337#1 405621337#2 405621337#3 405621334#0 405621334#1 325304814#0 325304814#1 325304814#2 325304814#3 -643879123 22702976#0"/>
    </vehicle>
    <vehicle id="18" depart="18.00">
        <route edges="431683960#1 735705814#3 405621333 405621335#0 405621335#1 405621335#2 397556478#0 397556478#1 1006864089 1006864090 755398685#0 755398685#1 283464682#0 283464682#1 325254156"/>
    </vehicle>
    <vehicle id="19" depart="19.00">
        <route edges="62077652#4 62077652#5 1126005761#1 1126005761#2 1126005761#3 740704861#0 740704861#1 -62077645#3 -94559902#1 -238180815#2 238180764#0"/>
    </vehicle>
    <vehicle id="20" depart="20.00">
        <route edges="329347612 -329347612 -92352816 329296735#5 329296735#6 329296735#7 329296735#8 329296735#9 1126005761#0 -62077652#5 -62077652#4 -62077652#3 -115976993#4"/>
    </vehicle>
    <vehicle id="21" depart="21.00">
        <route edges="-329351518 62077650#6 -92352786#5 -92352786#4 -92352786#3 -92352786#2 -92352786#1 -92352786#0 -485026075#1"/>
    </vehicle>
    <vehicle id="22" depart="22.00">
        <route edges="-136306796#1 106410247#1 106410247#2 106410247#3 329708208#0 329708208#1 115976993#0 115976995#0 115976995#1 115976995#2 115976995#3 115977003#0 -115976988 -1126005761#1 -1126005761#0 -329296735#9 -329296735#8 -329296735#7 -329296735#6 -329296735#5 -329296735#4 -329296735#3 -329296735#2 -329296735#1 -329296735#0 -1006867455#2 -1006867455#1 -1006867455#0 735705814#0 735705814#1 735705814#2 735705814#3 405621333 405621335#0 405621335#1 405621335#2 397556478#0 397556478#1 1006864089 397556489#0 397556489#1 397556489#2 397556471 -238180530#13 -329377957#0 -329377955"/>
    </vehicle>
    <vehicle id="24" depart="24.00">
        <route edges="316536481#1 316536481#2 1006871846#0 1006871846#1 1006871846#2 397556493#0 397556493#1 397556493#2 397556493#3 397556493#4 405621336#1 405621336#2 405621336#3 405621336#4 405621336#5 405621332 405621337#0 405621337#1 405621337#2 405621337#3 405621334#0 405621334#1 -755398688#1 -755398688#0 -329343850#1 -329343850#0 -92257393#7 -92257393#6 -92257393#5 -92257393#4"/>
    </vehicle>
    <vehicle id="25" depart="25.00">
        <route edges="-62077652#2 62077652#2 62077652#3 62077652#4 62077652#5 -1126005761#0 -329296735#9 -329296735#8 -329296735#7 -329296735#6 -329296735#5 -329296735#4 -329296735#3 -329296735#2 -62077728#3 -62077728#2 -62077728#1 -62077728#0 643398329 -329373548#4 -329373548#3 -329373548#2 -329373548#1 -329373548#0 -329373550#0"/>
    </vehicle>
    <vehicle id="26" depart="26.00">
        <route edges="-329377904 -329377908#1 92352809#1 92352809#2 92352809#3 92352809#4 92352809#5 92352809#6 92352809#7 92352809#8 397556487#0 397556487#1 397556483#0 397556483#1 405621336#0 405621336#1 405621336#2 405621336#3 405621336#4 405621336#5 405621332 1127492008#1 1006867456#0 1006867456#1 1006867457#0 1006867457#1 643398329 485026075#0 485026075#1 92352786#0"/>
    </vehicle>
    <vehicle id="27" depart="27.00">
        <route edges="329296735#1 -329296735#1 -329296735#0 -1006867455#2 -1006867455#1 -1006867455#0 735705814#0 735705814#1 735705814#2 735705814#3 405621333 -1127492008#1 -1127492008#0 -329296737#6 -329296737#5 325254149#4"/>
    </vehicle>
    <vehicle id="28" depart="28.00">
        <route edges="-329296737#0 329296737#0 329296737#1 329296737#2 329296737#3 329296737#4 329296737#5 329296737#6 1127492008#0 1127492008#1 1006867456#0 -329373538 -329373539 -329373533#3 -329373540 -92352787 92352787 329373540"/>
    </vehicle>
    <vehicle id="29" depart="29.00">
        <route edges="-329296735#0 329296735#0 329296735#1 329296735#2 329296735#3 329296735#4 329296735#5 -92352786#2"/>
    </vehicle>
    <vehicle id="30" depart="30.00">
        <route edges="94559898#1 94559898#2 -329696739#0 -740704861#1 -740704861#0 -1126005761#3 -1126005761#2 -1126005761#1 -1126005761#0 -329296735#9 -329296735#8 -329296735#7 -329296735#6 -329296735#5 -329296735#4 -329296735#3 -329296735#2 -329296735#1 -329296735#0 -1006867455#2 -1006867455#1 -1006867455#0 735705814#0 735705814#1 735705814#2 735705814#3 405621333 405621335#0 405621335#1 405621335#2 397556478#0 397556478#1 1006864089 1006864090 755398685#0 329296736#1 329296736#2"/>
    </vehicle>
    <vehicle id="31" depart="31.00">
        <route edges="115976998 62077650#1 62077650#2 62077650#3 62077650#4 62077650#5 62077650#6 -92352786#5 94415623 329347608"/>
    </vehicle>
    <vehicle id="32" depart="32.00">
        <route edges="62077645#0 62077645#1 62077645#2 62077645#3 -740704861#1 -740704861#0 -1126005761#3 -1126005761#2 -1126005761#1 -1126005761#0 -329296735#9 -329296735#8 -329296735#7 -329296735#6 -329296735#5 -329296735#4 -329296735#3 -329296735#2 -329296735#1 -329296735#0 -1006867455#2 -1006867455#1 -1006867455#0 735705814#0 735705814#1 735705814#2 735705814#3 405621333 405621335#0 405621335#1 405621335#2 397556478#0 397556478#1 1006864089 397556489#0 397556489#1 397556489#2 397556471 -238180530#13 -238180530#12 -238180530#11 -238180530#10 -238180530#9 -238180530#8 -238180530#7 -238180530#6 92352821#2 -329385047#3 -329385047#2 329385047#2"/>
    </vehicle>
    <vehicle id="33" depart="33.00">
        <route edges="-329351518 -62077650#5 -62077650#4 -62077650#3 643851045#1 329296735#9 1126005761#0 1126005761#1 -1126005761#1"/>
    </vehicle>
    <vehicle id="34" depart="34.00">
        <route edges="-329695084#7 -329695084#6 -329695084#5 -329695084#4 -329695084#3 -329695084#2 -329695084#1 -329695084#0 -740704861#1 -740704861#0 -329698219#2"/>
    </vehicle>
    <vehicle id="35" depart="35.00">
        <route edges="-329347608 -94415623 -92352786#4 -92352786#3 -329296735#5 -329296735#4 -329296735#3 -329296735#2 -329296735#1 -329296735#0 -1006867455#2 -1006867455#1 -1006867455#0 735705814#0 735705814#1 735705814#2 735705814#3 405621333 405621335#0 405621335#1 405621335#2 397556478#0 397556478#1 643376125 -92352804#6 -92352804#5 -92352804#4 -92352804#3 -92352804#2 -92352804#1 92352804#1"/>
    </vehicle>
    <vehicle id="36" depart="36.00">
        <route edges="642620330#0 642620330#1 -642620330#1 -642620330#0 -1135546336#2 -1135546336#1 -1135546336#0 -643879123 22702976#0 22702976#1 1006867455#0 1006867455#1 1006867455#2 329296735#0 329296735#1 329296735#2 329296735#3 329296735#4 329296735#5 329296735#6 329296735#7 329296735#8 329296735#9 1126005761#0 -62077652#5 -62077652#4 -62077652#3 -62077652#2 -62077652#1 -62077652#0"/>
    </vehicle>
    <vehicle id="37" depart="37.00">
        <route edges="329296737#1 329296737#2 329296737#3 329296737#4 329296737#5 329296737#6 1127492008#0 1127492008#1 405621335#0 405621335#1 405621335#2 397556478#0 397556478#1 1006864089 397556489#0 -92352809#7 -92352809#6 -92352809#5 -92352809#4"/>
    </vehicle>
    <vehicle id="38" depart="38.00">
        <route edges="845138563#1 845138559#0 845138559#1 -642240355 329698219#0 329698219#1 329698219#2 -1126005761#3 -1126005761#2 -1126005761#1 -1126005761#0 -329296735#9 -329296735#8 -329296735#7 -329296735#6 -329296735#5 -329296735#4 -329296735#3 -329296735#2 -62077728#3 -62077728#2 105828984#0 105828984#1"/>
    </vehicle>
    <vehicle id="40" depart="40.00">
        <route edges="115977002 -115977002 -115976991#3 -115976991#2 -115976991#1 -115976991#0 -70010704#0 -329698219#2 -329698218"/>
    </vehicle>
    <vehicle id="41" depart="41.00">
        <route edges="136306801#0 -593840258#3 -593840258#2 -593840258#1 -593840258#0 -740704862 -329695084#8 -329695084#7 -329695084#6 -329695084#5 -329695084#4 -329695084#3 -329695084#2 -329695084#1 -329695084#0 -740704861#1 -740704861#0 -1126005761#3 -1126005761#2 -1126005761#1 -1126005761#0 -329296735#9 -643851045#1 643851045#1"/>
    </vehicle>
    <vehicle id="42" depart="42.00">
        <route edges="-642620330#0 -1135546336#2 -1135546336#1 -1135546336#0 -643879123 22702976#0 22702976#1 735705814#0 735705814#1 735705814#2 735705814#3 405621333 405621335#0 405621335#1 405621335#2 397556478#0 397556478#1 1006864089 397556489#0 397556489#1 397556489#2 397556471 -238180530#13 -238180530#12 -238180530#11 -238180530#10 -238180530#9 -329377923#0 -329377920"/>
    </vehicle>
    <vehicle id="43" depart="43.00">
        <route edges="94559902#0 94559902#1 62077645#3 -740704861#1 -740704861#0 70010704#0 115976991#0 115976991#1 115976991#2 115976991#3 115977002"/>
    </vehicle>
    <vehicle id="44" depart="44.00">
        <route edges="-136306804 136306804 -329708217#1 106410245#0 106410245#1 106410245#2 106410245#3 106410245#4 106410245#5 106410245#6 106410245#7 -115976997#0 -115976995#1"/>
    </vehicle>
    <vehicle id="45" depart="45.00">
        <route edges="-238180617 94559216#6 755398689#4 755398689#5 1127492007#0 1127492007#1 1127492007#2 1127492007#3 1127492007#4 62077655#0 62077655#1 62077655#2 62077655#3 62077655#4 62077655#5 62077655#6 62077655#7 62077655#8 62077655#9 62077655#10 62077655#11 62077655#12 755398686#0 755398686#1 755398688#0 755398688#1 325304814#0 325304814#1 325304814#2"/>
    </vehicle>
    <vehicle id="46" depart="46.00">
        <route edges="329708205 106410245#4 106410245#5 115976993#4 62077652#3 62077652#4 62077652#5 -1126005761#0 -329296735#9 -329296735#8 -329296735#7 -329296735#6 -329296735#5 -329296735#4 -329296735#3 -329296735#2 -329296735#1 -329296735#0 -1006867455#2 -1006867455#1 -1006867455#0 735705814#0 735705814#1 735705814#2 735705814#3 405621333 -1127492008#1 -1127492008#0 -329296737#6 -329296737#5 -325254149#3 -94559216#0"/>
    </vehicle>
    <vehicle id="47" depart="47.00">
        <route edges="-118709678 62077655#0 62077655#1 62077655#2 62077655#3 62077655#4 62077655#5 62077655#6 62077655#7 62077655#8 62077655#9 62077655#10 62077655#11 62077655#12 755398686#0 755398686#1 755398688#0 755398688#1 331973420 1006867455#0 1006867455#1 1006867455#2 329296735#0 329296735#1 329296735#2 329296735#3 329296735#4 329296735#5 92352786#3 -92352786#3"/>
    </vehicle>
    <vehicle id="48" depart="48.00">
        <route edges="94559901 62077645#2 62077645#3 -740704861#1 -740704861#0 -1126005761#3 -1126005761#2 115976988 115977003#1 -106410245#9 -106410245#8 -106410245#7 -106410245#6 -106410245#5 -106410245#4 -106410245#3 -106410245#2 -106410245#1 136306796#0"/>
    </vehicle>
    <vehicle id="49" depart="49.00">
        <route edges="94415624 329347598#0 -329347589#0 -435326864 329296735#1 329296735#2 329296735#3 329296735#4 329296735#5 329296735#6 329296735#7 329296735#8 329296735#9 1126005761#0 -62077652#5 -62077652#4 -62077652#3 -62077652#2 -62077652#1 -62077652#0 62077652#0"/>
    </vehicle>
</routes>
