<?xml version="1.0" encoding="UTF-8"?>

<!-- generated on 2023-03-26 11:44:32 by Eclipse SUMO netconvert Version 1.12.0
<configuration xmlns:xsi="http://www.w3.org/2001/XMLSchema-instance" xsi:noNamespaceSchemaLocation="http://sumo.dlr.de/xsd/netconvertConfiguration.xsd">

    <input>
        <osm-files value="map.osm"/>
    </input>

    <output>
        <output-file value="map.net.xml"/>
    </output>

    <projection>
        <proj.utm value="true"/>
    </projection>

    <report>
        <aggregate-warnings value="5"/>
    </report>

</configuration>
-->

<net version="1.9" junctionCornerDetail="5" limitTurnSpeed="5.50" xmlns:xsi="http://www.w3.org/2001/XMLSchema-instance" xsi:noNamespaceSchemaLocation="http://sumo.dlr.de/xsd/net_file.xsd">

    <location netOffset="-388489.42,-594510.51" convBoundary="0.00,0.00,2529.64,3637.46" origBoundary="-4.006502,5.377765,-3.983183,5.410645" projParameter="+proj=utm +zone=30 +ellps=WGS84 +datum=WGS84 +units=m +no_defs"/>

    <type id="highway.bridleway" priority="1" numLanes="1" speed="2.78" allow="pedestrian" oneway="1" width="2.00"/>
    <type id="highway.bus_guideway" priority="1" numLanes="1" speed="27.78" allow="bus" oneway="1"/>
    <type id="highway.cycleway" priority="1" numLanes="1" speed="8.33" allow="bicycle" oneway="0" width="1.00"/>
    <type id="highway.footway" priority="1" numLanes="1" speed="2.78" allow="pedestrian" oneway="1" width="2.00"/>
    <type id="highway.ford" priority="1" numLanes="1" speed="2.78" allow="army" oneway="0"/>
    <type id="highway.living_street" priority="2" numLanes="1" speed="2.78" disallow="tram rail_urban rail rail_electric rail_fast ship" oneway="0"/>
    <type id="highway.motorway" priority="14" numLanes="2" speed="39.44" allow="private emergency authority army vip passenger hov taxi bus coach delivery truck trailer motorcycle evehicle custom1 custom2" oneway="1"/>
    <type id="highway.motorway_link" priority="9" numLanes="1" speed="22.22" allow="private emergency authority army vip passenger hov taxi bus coach delivery truck trailer motorcycle evehicle custom1 custom2" oneway="1"/>
    <type id="highway.path" priority="1" numLanes="1" speed="2.78" allow="pedestrian bicycle" oneway="0" width="2.00"/>
    <type id="highway.pedestrian" priority="1" numLanes="1" speed="2.78" allow="pedestrian" oneway="1" width="2.00"/>
    <type id="highway.primary" priority="12" numLanes="2" speed="27.78" disallow="tram rail_urban rail rail_electric rail_fast ship" oneway="0"/>
    <type id="highway.primary_link" priority="7" numLanes="1" speed="22.22" disallow="tram rail_urban rail rail_electric rail_fast ship" oneway="0"/>
    <type id="highway.raceway" priority="15" numLanes="2" speed="83.33" allow="vip" oneway="0"/>
    <type id="highway.residential" priority="3" numLanes="1" speed="13.89" disallow="tram rail_urban rail rail_electric rail_fast ship" oneway="0"/>
    <type id="highway.secondary" priority="11" numLanes="1" speed="27.78" disallow="tram rail_urban rail rail_electric rail_fast ship" oneway="0"/>
    <type id="highway.secondary_link" priority="6" numLanes="1" speed="22.22" disallow="tram rail_urban rail rail_electric rail_fast ship" oneway="0"/>
    <type id="highway.service" priority="1" numLanes="1" speed="5.56" allow="pedestrian delivery bicycle" oneway="0"/>
    <type id="highway.stairs" priority="1" numLanes="1" speed="1.39" allow="pedestrian" oneway="1" width="2.00"/>
    <type id="highway.step" priority="1" numLanes="1" speed="1.39" allow="pedestrian" oneway="1" width="2.00"/>
    <type id="highway.steps" priority="1" numLanes="1" speed="1.39" allow="pedestrian" oneway="1" width="2.00"/>
    <type id="highway.tertiary" priority="10" numLanes="1" speed="22.22" disallow="tram rail_urban rail rail_electric rail_fast ship" oneway="0"/>
    <type id="highway.tertiary_link" priority="5" numLanes="1" speed="22.22" disallow="tram rail_urban rail rail_electric rail_fast ship" oneway="0"/>
    <type id="highway.track" priority="1" numLanes="1" speed="5.56" allow="pedestrian motorcycle moped bicycle" oneway="0"/>
    <type id="highway.trunk" priority="13" numLanes="2" speed="27.78" disallow="pedestrian bicycle tram rail_urban rail rail_electric rail_fast ship" oneway="0"/>
    <type id="highway.trunk_link" priority="8" numLanes="1" speed="22.22" disallow="pedestrian bicycle tram rail_urban rail rail_electric rail_fast ship" oneway="0"/>
    <type id="highway.unclassified" priority="4" numLanes="1" speed="13.89" disallow="tram rail_urban rail rail_electric rail_fast ship" oneway="0"/>
    <type id="highway.unsurfaced" priority="1" numLanes="1" speed="8.33" disallow="tram rail_urban rail rail_electric rail_fast ship" oneway="0"/>
    <type id="railway.highspeed" priority="21" numLanes="1" speed="69.44" allow="rail_fast" oneway="1"/>
    <type id="railway.light_rail" priority="19" numLanes="1" speed="27.78" allow="rail_urban" oneway="1"/>
    <type id="railway.preserved" priority="16" numLanes="1" speed="27.78" allow="rail" oneway="1"/>
    <type id="railway.rail" priority="20" numLanes="1" speed="44.44" allow="rail" oneway="1"/>
    <type id="railway.subway" priority="18" numLanes="1" speed="27.78" allow="rail_urban" oneway="1"/>
    <type id="railway.tram" priority="17" numLanes="1" speed="13.89" allow="tram" oneway="1"/>

    <edge id=":10134713214_0" function="internal">
        <lane id=":10134713214_0_0" index="0" disallow="tram rail_urban rail rail_electric rail_fast ship" speed="22.22" length="11.89" shape="2193.12,1563.94 2191.76,1552.13"/>
    </edge>
    <edge id=":10134713214_1" function="internal">
        <lane id=":10134713214_1_0" index="0" disallow="tram rail_urban rail rail_electric rail_fast ship" speed="7.50" length="2.79" shape="2193.12,1563.94 2193.35,1561.16"/>
    </edge>
    <edge id=":10134713214_2" function="internal">
        <lane id=":10134713214_2_0" index="0" disallow="tram rail_urban rail rail_electric rail_fast ship" speed="3.65" length="1.44" shape="2193.12,1563.94 2193.78,1562.66"/>
    </edge>
    <edge id=":10134713214_9" function="internal">
        <lane id=":10134713214_9_0" index="0" disallow="tram rail_urban rail rail_electric rail_fast ship" speed="7.50" length="9.45" shape="2193.35,1561.16 2194.77,1559.02 2197.37,1557.51 2201.15,1556.65"/>
    </edge>
    <edge id=":10134713214_10" function="internal">
        <lane id=":10134713214_10_0" index="0" disallow="tram rail_urban rail rail_electric rail_fast ship" speed="3.65" length="3.23" shape="2193.78,1562.66 2194.52,1562.17 2195.36,1562.48 2196.30,1563.58"/>
    </edge>
    <edge id=":10134713214_3" function="internal">
        <lane id=":10134713214_3_0" index="0" disallow="tram rail_urban rail rail_electric rail_fast ship" speed="5.89" length="7.17" shape="2201.54,1559.83 2199.12,1560.32 2197.43,1561.11 2196.49,1562.20 2196.30,1563.58"/>
    </edge>
    <edge id=":10134713214_4" function="internal">
        <lane id=":10134713214_4_0" index="0" disallow="tram rail_urban rail rail_electric rail_fast ship" speed="7.99" length="14.22" shape="2201.54,1559.83 2197.64,1559.76 2194.71,1558.45 2192.75,1555.91 2191.76,1552.13"/>
    </edge>
    <edge id=":10134713214_5" function="internal">
        <lane id=":10134713214_5_0" index="0" disallow="tram rail_urban rail rail_electric rail_fast ship" speed="3.65" length="4.67" shape="2201.54,1559.83 2200.25,1559.18 2199.76,1558.44 2200.06,1557.60 2201.15,1556.65"/>
    </edge>
    <edge id=":10134713214_6" function="internal">
        <lane id=":10134713214_6_0" index="0" disallow="tram rail_urban rail rail_electric rail_fast ship" speed="6.49" length="9.03" shape="2194.94,1551.77 2195.57,1554.16 2196.81,1555.78 2198.67,1556.61 2201.15,1556.65"/>
    </edge>
    <edge id=":10134713214_7" function="internal">
        <lane id=":10134713214_7_0" index="0" disallow="tram rail_urban rail rail_electric rail_fast ship" speed="22.22" length="11.89" shape="2194.94,1551.77 2196.30,1563.58"/>
    </edge>
    <edge id=":10134713214_8" function="internal">
        <lane id=":10134713214_8_0" index="0" disallow="tram rail_urban rail rail_electric rail_fast ship" speed="3.65" length="1.44" shape="2194.94,1551.77 2194.28,1553.05"/>
    </edge>
    <edge id=":10134713214_11" function="internal">
        <lane id=":10134713214_11_0" index="0" disallow="tram rail_urban rail rail_electric rail_fast ship" speed="3.65" length="3.23" shape="2194.28,1553.05 2193.53,1553.54 2192.69,1553.23 2191.76,1552.13"/>
    </edge>
    <edge id=":10134713215_0" function="internal">
        <lane id=":10134713215_0_0" index="0" disallow="tram rail_urban rail rail_electric rail_fast ship" speed="3.65" length="4.67" shape="2281.69,1546.70 2282.98,1547.34 2283.48,1548.09 2283.18,1548.93 2282.09,1549.87"/>
    </edge>
    <edge id=":10134713216_0" function="internal">
        <lane id=":10134713216_0_0" index="0" disallow="tram rail_urban rail rail_electric rail_fast ship" speed="3.65" length="4.67" shape="2354.30,1681.52 2355.60,1682.14 2356.11,1682.87 2355.83,1683.72 2354.76,1684.68"/>
    </edge>
    <edge id=":10134717017_0" function="internal">
        <lane id=":10134717017_0_0" index="0" disallow="tram rail_urban rail rail_electric rail_fast ship" speed="22.22" length="14.35" shape="2211.42,1711.22 2209.73,1696.97"/>
    </edge>
    <edge id=":10134717017_1" function="internal">
        <lane id=":10134717017_1_0" index="0" disallow="tram rail_urban rail rail_electric rail_fast ship" speed="8.11" length="3.97" shape="2211.42,1711.22 2211.54,1707.39 2211.60,1707.26"/>
    </edge>
    <edge id=":10134717017_2" function="internal">
        <lane id=":10134717017_2_0" index="0" disallow="tram rail_urban rail rail_electric rail_fast ship" speed="3.65" length="1.44" shape="2211.42,1711.22 2212.08,1709.94"/>
    </edge>
    <edge id=":10134717017_9" function="internal">
        <lane id=":10134717017_9_0" index="0" disallow="tram rail_urban rail rail_electric rail_fast ship" speed="8.11" length="10.24" shape="2211.60,1707.26 2212.88,1704.46 2215.42,1702.45 2219.18,1701.35"/>
    </edge>
    <edge id=":10134717017_10" function="internal">
        <lane id=":10134717017_10_0" index="0" disallow="tram rail_urban rail rail_electric rail_fast ship" speed="3.65" length="3.23" shape="2212.08,1709.94 2212.83,1709.45 2213.67,1709.76 2214.60,1710.86"/>
    </edge>
    <edge id=":10134717017_3" function="internal">
        <lane id=":10134717017_3_0" index="0" disallow="tram rail_urban rail rail_electric rail_fast ship" speed="6.63" length="9.18" shape="2219.64,1704.52 2217.20,1705.23 2215.55,1706.52 2214.68,1708.40 2214.60,1710.86"/>
    </edge>
    <edge id=":10134717017_4" function="internal">
        <lane id=":10134717017_4_0" index="0" disallow="tram rail_urban rail rail_electric rail_fast ship" speed="7.96" length="14.28" shape="2219.64,1704.52 2215.72,1704.53 2212.76,1703.28 2210.76,1700.76 2209.73,1696.97"/>
    </edge>
    <edge id=":10134717017_5" function="internal">
        <lane id=":10134717017_5_0" index="0" disallow="tram rail_urban rail rail_electric rail_fast ship" speed="3.65" length="4.67" shape="2219.64,1704.52 2218.34,1703.90 2217.83,1703.17 2218.11,1702.32 2219.18,1701.35"/>
    </edge>
    <edge id=":10134717017_6" function="internal">
        <lane id=":10134717017_6_0" index="0" disallow="tram rail_urban rail rail_electric rail_fast ship" speed="6.46" length="9.03" shape="2212.91,1696.58 2213.56,1698.98 2214.82,1700.57 2216.70,1701.36 2219.18,1701.35"/>
    </edge>
    <edge id=":10134717017_7" function="internal">
        <lane id=":10134717017_7_0" index="0" disallow="tram rail_urban rail rail_electric rail_fast ship" speed="22.22" length="14.38" shape="2212.91,1696.58 2214.60,1710.86"/>
    </edge>
    <edge id=":10134717017_8" function="internal">
        <lane id=":10134717017_8_0" index="0" disallow="tram rail_urban rail rail_electric rail_fast ship" speed="3.65" length="1.44" shape="2212.91,1696.58 2212.26,1697.87"/>
    </edge>
    <edge id=":10134717017_11" function="internal">
        <lane id=":10134717017_11_0" index="0" disallow="tram rail_urban rail rail_electric rail_fast ship" speed="3.65" length="3.23" shape="2212.26,1697.87 2211.52,1698.36 2210.67,1698.07 2209.73,1696.97"/>
    </edge>
    <edge id=":10170601166_0" function="internal">
        <lane id=":10170601166_0_0" index="0" allow="pedestrian delivery bicycle" speed="3.65" length="4.67" shape="2083.73,1978.66 2085.17,1978.52 2085.98,1978.88 2086.18,1979.76 2085.75,1981.14"/>
    </edge>
    <edge id=":10170601169_0" function="internal">
        <lane id=":10170601169_0_0" index="0" allow="pedestrian delivery bicycle" speed="5.43" length="5.45" shape="2115.87,2037.68 2115.47,2036.42 2114.67,2035.52 2113.47,2035.00 2111.87,2034.85"/>
    </edge>
    <edge id=":10170601169_1" function="internal">
        <lane id=":10170601169_1_0" index="0" disallow="tram rail_urban rail rail_electric rail_fast ship" speed="13.89" length="9.41" shape="2115.87,2037.68 2114.68,2028.34"/>
    </edge>
    <edge id=":10170601169_2" function="internal">
        <lane id=":10170601169_2_0" index="0" disallow="tram rail_urban rail rail_electric rail_fast ship" speed="13.89" length="9.37" shape="2117.86,2027.96 2119.04,2037.25"/>
    </edge>
    <edge id=":10170601169_3" function="internal">
        <lane id=":10170601169_3_0" index="0" allow="pedestrian delivery bicycle" speed="6.79" length="3.32" shape="2117.86,2027.96 2117.79,2030.92 2117.64,2031.24"/>
    </edge>
    <edge id=":10170601169_7" function="internal">
        <lane id=":10170601169_7_0" index="0" allow="pedestrian delivery bicycle" speed="6.79" length="7.35" shape="2117.64,2031.24 2116.77,2033.06 2114.79,2034.37 2111.87,2034.85"/>
    </edge>
    <edge id=":10170601169_4" function="internal">
        <lane id=":10170601169_4_0" index="0" allow="pedestrian delivery bicycle" speed="4.94" length="5.12" shape="2111.80,2031.65 2113.21,2031.42 2114.16,2030.79 2114.65,2029.77 2114.68,2028.34"/>
    </edge>
    <edge id=":10170601169_5" function="internal">
        <lane id=":10170601169_5_0" index="0" allow="pedestrian delivery bicycle" speed="7.16" length="10.18" shape="2111.80,2031.65 2114.68,2031.96 2116.84,2032.99 2118.30,2034.75 2119.04,2037.25"/>
    </edge>
    <edge id=":10170601169_6" function="internal">
        <lane id=":10170601169_6_0" index="0" allow="pedestrian delivery bicycle" speed="3.65" length="4.67" shape="2111.80,2031.65 2113.02,2032.43 2113.43,2033.22 2113.05,2034.03 2111.87,2034.85"/>
    </edge>
    <edge id=":10170601172_0" function="internal">
        <lane id=":10170601172_0_0" index="0" allow="pedestrian delivery bicycle" speed="5.56" length="6.14" shape="2039.29,2024.71 2037.65,2023.64 2036.16,2022.95 2034.83,2022.65 2033.66,2022.72"/>
    </edge>
    <edge id=":10170601172_1" function="internal">
        <lane id=":10170601172_1_0" index="0" allow="pedestrian delivery bicycle" speed="5.56" length="10.64" shape="2039.29,2024.71 2037.18,2022.65 2036.32,2020.45 2036.69,2018.11 2038.32,2015.64"/>
    </edge>
    <edge id=":10170601172_2" function="internal">
        <lane id=":10170601172_2_0" index="0" allow="pedestrian delivery bicycle" speed="3.65" length="4.67" shape="2039.29,2024.71 2038.80,2023.36 2038.95,2022.48 2039.74,2022.07 2041.18,2022.13"/>
    </edge>
    <edge id=":10170601172_3" function="internal">
        <lane id=":10170601172_3_0" index="0" allow="pedestrian delivery bicycle" speed="4.94" length="5.12" shape="2040.71,2017.77 2039.93,2018.95 2039.75,2020.08 2040.17,2021.13 2041.18,2022.13"/>
    </edge>
    <edge id=":10170601172_4" function="internal">
        <lane id=":10170601172_4_0" index="0" allow="pedestrian delivery bicycle" speed="5.56" length="8.86" shape="2040.71,2017.77 2038.99,2019.76 2037.69,2021.07 2036.13,2021.97 2033.66,2022.72"/>
    </edge>
    <edge id=":10170601172_5" function="internal">
        <lane id=":10170601172_5_0" index="0" allow="pedestrian delivery bicycle" speed="3.65" length="4.67" shape="2040.71,2017.77 2039.32,2018.13 2038.45,2017.90 2038.12,2017.07 2038.32,2015.64"/>
    </edge>
    <edge id=":10170601172_6" function="internal">
        <lane id=":10170601172_6_0" index="0" allow="pedestrian delivery bicycle" speed="5.56" length="6.91" shape="2032.90,2019.62 2034.81,2019.01 2036.00,2018.27 2036.99,2017.21 2038.32,2015.64"/>
    </edge>
    <edge id=":10170601172_7" function="internal">
        <lane id=":10170601172_7_0" index="0" allow="pedestrian delivery bicycle" speed="5.56" length="8.91" shape="2032.90,2019.62 2034.78,2019.44 2036.79,2019.80 2038.92,2020.70 2041.18,2022.13"/>
    </edge>
    <edge id=":10170601172_8" function="internal">
        <lane id=":10170601172_8_0" index="0" allow="pedestrian delivery bicycle" speed="3.65" length="4.67" shape="2032.90,2019.62 2034.26,2020.11 2034.84,2020.79 2034.64,2021.66 2033.66,2022.72"/>
    </edge>
    <edge id=":10170601173_0" function="internal">
        <lane id=":10170601173_0_0" index="0" disallow="tram rail_urban rail rail_electric rail_fast ship" speed="13.89" length="9.43" shape="1988.78,2036.38 1987.48,2027.04"/>
    </edge>
    <edge id=":10170601173_1" function="internal">
        <lane id=":10170601173_1_0" index="0" allow="pedestrian delivery bicycle" speed="7.14" length="3.08" shape="1988.78,2036.38 1988.82,2033.76 1989.00,2033.34"/>
    </edge>
    <edge id=":10170601173_7" function="internal">
        <lane id=":10170601173_7_0" index="0" allow="pedestrian delivery bicycle" speed="7.14" length="7.14" shape="1989.00,2033.34 1989.75,2031.66 1991.57,2030.10 1994.27,2029.06"/>
    </edge>
    <edge id=":10170601173_2" function="internal">
        <lane id=":10170601173_2_0" index="0" allow="pedestrian delivery bicycle" speed="5.40" length="5.43" shape="1995.03,2032.17 1993.53,2032.72 1992.52,2033.54 1991.99,2034.61 1991.95,2035.94"/>
    </edge>
    <edge id=":10170601173_3" function="internal">
        <lane id=":10170601173_3_0" index="0" allow="pedestrian delivery bicycle" speed="6.78" length="10.67" shape="1995.03,2032.17 1992.08,2032.45 1989.84,2031.70 1988.30,2029.89 1987.48,2027.04"/>
    </edge>
    <edge id=":10170601173_4" function="internal">
        <lane id=":10170601173_4_0" index="0" allow="pedestrian delivery bicycle" speed="3.65" length="4.67" shape="1995.03,2032.17 1993.68,2031.68 1993.10,2030.99 1993.30,2030.12 1994.27,2029.06"/>
    </edge>
    <edge id=":10170601173_5" function="internal">
        <lane id=":10170601173_5_0" index="0" allow="pedestrian delivery bicycle" speed="4.94" length="5.12" shape="1990.65,2026.60 1991.04,2027.97 1991.78,2028.83 1992.86,2029.20 1994.27,2029.06"/>
    </edge>
    <edge id=":10170601173_6" function="internal">
        <lane id=":10170601173_6_0" index="0" disallow="tram rail_urban rail rail_electric rail_fast ship" speed="13.89" length="9.43" shape="1990.65,2026.60 1991.95,2035.94"/>
    </edge>
    <edge id=":10230416542_0" function="internal">
        <lane id=":10230416542_0_0" index="0" disallow="tram rail_urban rail rail_electric rail_fast ship" speed="3.65" length="4.67" shape="2449.74,1605.33 2450.97,1606.08 2451.41,1606.87 2451.04,1607.68 2449.87,1608.53"/>
    </edge>
    <edge id=":10230416546_0" function="internal">
        <lane id=":10230416546_0_0" index="0" allow="pedestrian delivery bicycle" speed="3.65" length="4.67" shape="2359.79,1567.73 2361.14,1568.24 2361.71,1568.93 2361.50,1569.80 2360.51,1570.85"/>
    </edge>
    <edge id=":10230416549_0" function="internal">
        <lane id=":10230416549_0_0" index="0" disallow="tram rail_urban rail rail_electric rail_fast ship" speed="3.65" length="4.67" shape="2375.73,1934.02 2376.94,1934.81 2377.35,1935.61 2376.95,1936.41 2375.76,1937.22"/>
    </edge>
    <edge id=":10296548831_0" function="internal">
        <lane id=":10296548831_0_0" index="0" disallow="tram rail_urban rail rail_electric rail_fast ship" speed="22.22" length="0.10" shape="1005.12,2414.40 1005.11,2414.40"/>
    </edge>
    <edge id=":10296548831_1" function="internal">
        <lane id=":10296548831_1_0" index="0" disallow="tram rail_urban rail rail_electric rail_fast ship" speed="22.22" length="0.10" shape="1004.66,2411.23 1004.66,2411.23"/>
    </edge>
    <edge id=":10303862585_0" function="internal">
        <lane id=":10303862585_0_0" index="0" allow="pedestrian delivery bicycle" speed="3.65" length="4.67" shape="1704.36,1587.98 1703.74,1589.28 1703.01,1589.79 1702.16,1589.51 1701.20,1588.43"/>
    </edge>
    <edge id=":10303862586_0" function="internal">
        <lane id=":10303862586_0_0" index="0" allow="pedestrian delivery bicycle" speed="4.37" length="3.45" shape="1694.43,1540.79 1694.43,1539.85 1694.49,1538.78 1694.39,1537.91 1693.91,1537.60"/>
    </edge>
    <edge id=":10303862586_1" function="internal">
        <lane id=":10303862586_1_0" index="0" allow="pedestrian delivery bicycle" speed="3.65" length="4.67" shape="1694.43,1540.79 1695.05,1539.49 1695.79,1538.98 1696.64,1539.26 1697.60,1540.34"/>
    </edge>
    <edge id=":10303862586_2" function="internal">
        <lane id=":10303862586_2_0" index="0" allow="pedestrian delivery bicycle" speed="5.01" length="5.03" shape="1700.28,1536.87 1698.94,1537.22 1698.05,1537.91 1697.60,1538.95 1697.60,1540.34"/>
    </edge>
    <edge id=":10303862586_3" function="internal">
        <lane id=":10303862586_3_0" index="0" disallow="tram rail_urban rail rail_electric rail_fast ship" speed="27.78" length="6.43" shape="1700.28,1536.87 1693.91,1537.60"/>
        <lane id=":10303862586_3_1" index="1" disallow="tram rail_urban rail rail_electric rail_fast ship" speed="27.78" length="6.43" shape="1699.92,1533.69 1693.52,1534.42"/>
    </edge>
    <edge id=":10303862594_0" function="internal">
        <lane id=":10303862594_0_0" index="0" allow="pedestrian delivery bicycle" speed="4.94" length="5.12" shape="1589.55,1572.70 1588.15,1572.95 1587.21,1573.59 1586.73,1574.63 1586.72,1576.05"/>
    </edge>
    <edge id=":10303862594_1" function="internal">
        <lane id=":10303862594_1_0" index="0" allow="pedestrian delivery bicycle" speed="3.65" length="4.67" shape="1589.55,1572.70 1588.33,1571.94 1587.90,1571.16 1588.27,1570.34 1589.44,1569.50"/>
    </edge>
    <edge id=":10303862594_2" function="internal">
        <lane id=":10303862594_2_0" index="0" allow="pedestrian delivery bicycle" speed="5.37" length="5.41" shape="1585.50,1566.69 1585.89,1567.97 1586.67,1568.86 1587.86,1569.37 1589.44,1569.50"/>
    </edge>
    <edge id=":10303862594_3" function="internal">
        <lane id=":10303862594_3_0" index="0" disallow="tram rail_urban rail rail_electric rail_fast ship" speed="27.78" length="9.45" shape="1585.50,1566.69 1586.72,1576.05"/>
        <lane id=":10303862594_3_1" index="1" disallow="tram rail_urban rail rail_electric rail_fast ship" speed="27.78" length="9.45" shape="1582.33,1567.09 1583.54,1576.47"/>
    </edge>
    <edge id=":10303862595_0" function="internal">
        <lane id=":10303862595_0_0" index="0" allow="pedestrian delivery bicycle" speed="5.82" length="5.89" shape="1593.10,1593.80 1591.42,1594.55 1590.27,1595.48 1589.65,1596.59 1589.55,1597.89"/>
    </edge>
    <edge id=":10303862595_1" function="internal">
        <lane id=":10303862595_1_0" index="0" allow="pedestrian delivery bicycle" speed="3.65" length="4.67" shape="1593.10,1593.80 1591.71,1593.42 1591.07,1592.79 1591.19,1591.91 1592.07,1590.77"/>
    </edge>
    <edge id=":10303862595_2" function="internal">
        <lane id=":10303862595_2_0" index="0" allow="pedestrian delivery bicycle" speed="4.86" length="5.25" shape="1588.36,1588.45 1588.76,1589.88 1589.51,1590.74 1590.62,1591.04 1592.07,1590.77"/>
    </edge>
    <edge id=":10303862595_3" function="internal">
        <lane id=":10303862595_3_0" index="0" disallow="tram rail_urban rail rail_electric rail_fast ship" speed="27.78" length="9.49" shape="1588.36,1588.45 1589.55,1597.89"/>
        <lane id=":10303862595_3_1" index="1" disallow="tram rail_urban rail rail_electric rail_fast ship" speed="27.78" length="9.49" shape="1585.18,1588.87 1586.37,1598.26"/>
    </edge>
    <edge id=":10316346455_0" function="internal">
        <lane id=":10316346455_0_0" index="0" disallow="tram rail_urban rail rail_electric rail_fast ship" speed="3.65" length="4.67" shape="2373.59,2203.97 2374.26,2202.69 2375.01,2202.21 2375.85,2202.52 2376.77,2203.63"/>
    </edge>
    <edge id=":10654234384_0" function="internal">
        <lane id=":10654234384_0_0" index="0" disallow="tram rail_urban rail rail_electric rail_fast ship" speed="3.65" length="4.67" shape="655.53,961.85 656.16,960.55 656.90,960.05 657.75,960.33 658.70,961.41"/>
    </edge>
    <edge id=":1071045456_0" function="internal">
        <lane id=":1071045456_0_0" index="0" disallow="tram rail_urban rail rail_electric rail_fast ship" speed="22.22" length="14.30" shape="2149.71,2217.90 2135.52,2219.68"/>
    </edge>
    <edge id=":1071045456_1" function="internal">
        <lane id=":1071045456_1_0" index="0" disallow="tram rail_urban rail rail_electric rail_fast ship" speed="8.07" length="3.96" shape="2149.71,2217.90 2145.86,2217.79 2145.76,2217.74"/>
    </edge>
    <edge id=":1071045456_2" function="internal">
        <lane id=":1071045456_2_0" index="0" disallow="tram rail_urban rail rail_electric rail_fast ship" speed="3.65" length="1.44" shape="2149.71,2217.90 2148.43,2217.24"/>
    </edge>
    <edge id=":1071045456_9" function="internal">
        <lane id=":1071045456_9_0" index="0" disallow="tram rail_urban rail rail_electric rail_fast ship" speed="8.07" length="10.21" shape="2145.76,2217.74 2142.94,2216.47 2140.94,2213.94 2139.87,2210.20"/>
    </edge>
    <edge id=":1071045456_10" function="internal">
        <lane id=":1071045456_10_0" index="0" disallow="tram rail_urban rail rail_electric rail_fast ship" speed="3.65" length="3.23" shape="2148.43,2217.24 2147.94,2216.49 2148.25,2215.65 2149.35,2214.72"/>
    </edge>
    <edge id=":1071045456_3" function="internal">
        <lane id=":1071045456_3_0" index="0" disallow="tram rail_urban rail rail_electric rail_fast ship" speed="6.59" length="9.10" shape="2143.04,2209.76 2143.73,2212.17 2145.01,2213.80 2146.88,2214.65 2149.35,2214.72"/>
    </edge>
    <edge id=":1071045456_4" function="internal">
        <lane id=":1071045456_4_0" index="0" disallow="tram rail_urban rail rail_electric rail_fast ship" speed="7.99" length="14.21" shape="2143.04,2209.76 2143.03,2213.65 2141.77,2216.60 2139.27,2218.61 2135.52,2219.68"/>
    </edge>
    <edge id=":1071045456_5" function="internal">
        <lane id=":1071045456_5_0" index="0" disallow="tram rail_urban rail rail_electric rail_fast ship" speed="3.65" length="4.67" shape="2143.04,2209.76 2142.41,2211.06 2141.68,2211.56 2140.83,2211.28 2139.87,2210.20"/>
    </edge>
    <edge id=":1071045456_6" function="internal">
        <lane id=":1071045456_6_0" index="0" disallow="tram rail_urban rail rail_electric rail_fast ship" speed="6.50" length="9.03" shape="2135.09,2216.51 2137.47,2215.83 2139.06,2214.55 2139.86,2212.68 2139.87,2210.20"/>
    </edge>
    <edge id=":1071045456_7" function="internal">
        <lane id=":1071045456_7_0" index="0" disallow="tram rail_urban rail rail_electric rail_fast ship" speed="22.22" length="14.37" shape="2135.09,2216.51 2149.35,2214.72"/>
    </edge>
    <edge id=":1071045456_8" function="internal">
        <lane id=":1071045456_8_0" index="0" disallow="tram rail_urban rail rail_electric rail_fast ship" speed="3.65" length="1.44" shape="2135.09,2216.51 2136.39,2217.14"/>
    </edge>
    <edge id=":1071045456_11" function="internal">
        <lane id=":1071045456_11_0" index="0" disallow="tram rail_urban rail rail_electric rail_fast ship" speed="3.65" length="3.23" shape="2136.39,2217.14 2136.89,2217.88 2136.60,2218.72 2135.52,2219.68"/>
    </edge>
    <edge id=":1071045463_0" function="internal">
        <lane id=":1071045463_0_0" index="0" disallow="tram rail_urban rail rail_electric rail_fast ship" speed="6.44" length="9.03" shape="1947.51,1688.42 1946.90,1686.01 1945.66,1684.40 1943.80,1683.59 1941.32,1683.57"/>
    </edge>
    <edge id=":1071045463_1" function="internal">
        <lane id=":1071045463_1_0" index="0" disallow="tram rail_urban rail rail_electric rail_fast ship" speed="8.08" length="14.24" shape="1947.51,1688.42 1947.64,1684.50 1948.96,1681.53 1951.47,1679.52 1955.18,1678.48"/>
    </edge>
    <edge id=":1071045463_2" function="internal">
        <lane id=":1071045463_2_0" index="0" disallow="tram rail_urban rail rail_electric rail_fast ship" speed="3.65" length="4.67" shape="1947.51,1688.42 1948.18,1687.14 1948.93,1686.66 1949.77,1686.97 1950.70,1688.08"/>
    </edge>
    <edge id=":1071045463_3" function="internal">
        <lane id=":1071045463_3_0" index="0" disallow="tram rail_urban rail rail_electric rail_fast ship" speed="6.61" length="9.17" shape="1955.60,1681.65 1953.22,1682.32 1951.61,1683.62 1950.77,1685.54 1950.70,1688.08"/>
    </edge>
    <edge id=":1071045463_4" function="internal">
        <lane id=":1071045463_4_0" index="0" disallow="tram rail_urban rail rail_electric rail_fast ship" speed="13.89" length="14.41" shape="1955.60,1681.65 1941.32,1683.57"/>
    </edge>
    <edge id=":1071045463_5" function="internal">
        <lane id=":1071045463_5_0" index="0" disallow="tram rail_urban rail rail_electric rail_fast ship" speed="3.65" length="1.44" shape="1955.60,1681.65 1954.30,1681.01"/>
    </edge>
    <edge id=":1071045463_9" function="internal">
        <lane id=":1071045463_9_0" index="0" disallow="tram rail_urban rail rail_electric rail_fast ship" speed="3.65" length="3.23" shape="1954.30,1681.01 1953.80,1680.27 1954.09,1679.43 1955.18,1678.48"/>
    </edge>
    <edge id=":1071045463_6" function="internal">
        <lane id=":1071045463_6_0" index="0" disallow="tram rail_urban rail rail_electric rail_fast ship" speed="13.89" length="14.43" shape="1940.88,1680.40 1955.18,1678.48"/>
    </edge>
    <edge id=":1071045463_7" function="internal">