<?xml version="1.0" encoding="UTF-8"?>

<!-- generated on 2023-03-26 11:53:32 by Eclipse SUMO polyconvert Version 1.12.0
<configuration xmlns:xsi="http://www.w3.org/2001/XMLSchema-instance" xsi:noNamespaceSchemaLocation="http://sumo.dlr.de/xsd/polyconvertConfiguration.xsd">

    <input>
        <net-file value="map.net.xml"/>
        <osm-files value="map.osm"/>
        <type-file value="osmPolyconvert.typ.xml"/>
    </input>

    <output>
        <output-file value="map.poly.xml"/>
    </output>

    <processing>
        <poi-layer-offset value="5"/>
    </processing>

</configuration>
-->

<additional xmlns:xsi="http://www.w3.org/2001/XMLSchema-instance" xsi:noNamespaceSchemaLocation="http://sumo.dlr.de/xsd/additional_file.xsd">
    <location netOffset="-388489.42,-594510.51" convBoundary="-11460.46,-2612.54,6362.38,11698.52" origBoundary="-4.110032,5.354117,-3.949061,5.483508" projParameter="+proj=utm +zone=30 +ellps=WGS84 +datum=WGS84 +units=m +no_defs"/>

    <poly id="1087239275" type="parking" color="184,184,179" fill="1" layer="-1.00" shape="1905.587543,2058.252673 1926.646489,2055.509844 1929.709028,2078.699613 1908.650089,2081.442443 1905.587543,2058.252673"/>
    <poly id="1134316532" type="building" color="255,230,230" fill="1" layer="-1.00" shape="1758.163413,2295.171608 1755.944678,2279.885253 1733.479418,2283.116887 1735.698158,2298.403243 1758.163413,2295.171608"/>
    <poly id="1134316533" type="building" color="255,230,230" fill="1" layer="-1.00" shape="1772.768781,2323.494536 1766.179928,2278.166033 1756.653229,2279.530320 1763.242089,2324.858823 1772.768781,2323.494536"/>
    <poly id="1134316535" type="building" color="255,230,230" fill="1" layer="-1.00" shape="1347.667007,1793.228157 1359.586543,1791.517194 1357.300535,1775.799774 1345.380997,1777.510736 1347.667007,1793.228157"/>
    <poly id="1134316536" type="building" color="255,230,230" fill="1" layer="-1.00" shape="1400.786161,1834.323844 1411.055118,1832.847751 1408.780311,1817.196646 1398.500253,1818.661702 1400.786161,1834.323844"/>
    <poly id="1134316537" type="building" color="255,230,230" fill="1" layer="-1.00" shape="1510.618744,1851.270023 1522.128391,1849.615035 1520.111372,1835.754528 1508.601722,1837.409516 1510.618744,1851.270023"/>
    <poly id="1134316538" type="building" color="255,230,230" fill="1" layer="-1.00" shape="1509.242955,1822.936617 1519.932853,1821.393521 1516.929773,1800.779615 1506.239854,1802.311655 1509.242955,1822.936617"/>
    <poly id="1134316539" type="building" color="255,230,230" fill="1" layer="-1.00" shape="1563.432994,2161.018738 1574.931524,2159.374822 1572.017980,2139.302498 1560.519465,2140.957470 1563.432994,2161.018738"/>
    <poly id="1134316540" type="building" color="255,230,230" fill="1" layer="-1.00" shape="1667.813585,2109.926409 1680.165078,2108.148458 1675.783713,2078.028936 1663.432214,2079.806887 1667.813585,2109.926409"/>
    <poly id="1134316541" type="building" color="255,230,230" fill="1" layer="-1.00" shape="1191.685250,1912.021680 1208.489989,1909.606197 1205.318638,1887.787494 1188.513894,1890.202977 1191.685250,1912.021680"/>
    <poly id="1134316542" type="building" color="255,230,230" fill="1" layer="-1.00" shape="1145.859304,1886.027319 1187.621937,1880.033222 1183.610117,1852.433779 1141.847466,1858.427875 1145.859304,1886.027319"/>
    <poly id="1134316543" type="building" color="255,230,230" fill="1" layer="-1.00" shape="1336.361860,1967.727059 1335.230077,1959.956775 1329.702352,1960.750750 1330.823056,1968.521051 1336.361860,1967.727059"/>
    <poly id="1134316544" type="building" color="255,230,230" fill="1" layer="-1.00" shape="1342.167147,1974.063534 1340.071716,1959.705649 1335.729299,1960.331853 1337.813651,1974.689756 1342.167147,1974.063534"/>
    <poly id="1134316545" type="building" color="255,230,230" fill="1" layer="-1.00" shape="1332.666857,1978.059078 1342.537015,1976.649955 1342.167147,1974.063534 1332.285927,1975.483731 1332.666857,1978.059078"/>
    <poly id="1134316546" type="building" color="255,230,230" fill="1" layer="-1.00" shape="1298.193815,1983.289407 1310.567495,1981.511354 1308.718510,1968.800360 1296.344827,1970.578413 1298.193815,1983.289407"/>
    <poly id="1134316547" type="building" color="255,230,230" fill="1" layer="-1.00" shape="1394.653867,2177.678440 1415.579408,2174.681378 1413.607207,2161.141411 1392.681680,2164.149529 1394.653867,2177.678440"/>
    <poly id="1134316548" type="building" color="255,230,230" fill="1" layer="-1.00" shape="1380.115536,2190.548845 1394.926247,2188.424098 1392.113632,2169.125503 1377.302917,2171.250251 1380.115536,2190.548845"/>
    <poly id="1134316549" type="building" color="255,230,230" fill="1" layer="-1.00" shape="1404.811701,2209.988616 1418.348480,2208.042843 1416.678763,2196.536625 1403.141981,2198.482398 1404.811701,2209.988616"/>
    <poly id="1134316550" type="building" color="255,230,230" fill="1" layer="-1.00" shape="1427.663499,2280.663333 1444.423821,2278.247965 1435.279886,2215.400400 1418.519530,2217.804712 1427.663499,2280.663333"/>
    <poly id="1134316551" type="building" color="255,230,230" fill="1" layer="-1.00" shape="1485.644513,2300.192545 1516.883200,2295.708287 1514.742853,2280.963529 1483.504158,2285.447787 1485.644513,2300.192545"/>
    <poly id="1134316552" type="building" color="255,230,230" fill="1" layer="-1.00" shape="1503.107285,2388.808337 1512.955219,2387.399264 1510.501220,2370.565498 1500.653283,2371.974571 1503.107285,2388.808337"/>
    <poly id="1134316553" type="building" color="255,230,230" fill="1" layer="-1.00" shape="1517.445165,2388.928678 1526.462291,2387.642574 1523.571286,2367.813438 1514.554175,2369.110598 1517.445165,2388.928678"/>
    <poly id="1134316554" type="building" color="255,230,230" fill="1" layer="-1.00" shape="1394.587433,2320.274468 1410.483713,2317.993168 1407.928848,2300.474115 1392.043645,2302.755397 1394.587433,2320.274468"/>
    <poly id="1134316555" type="building" color="255,230,230" fill="1" layer="-1.00" shape="1518.357224,2282.339593 1554.492194,2277.150866 1552.385565,2262.693500 1516.250568,2267.871172 1518.357224,2282.339593"/>
    <poly id="1134316556" type="building" color="255,230,230" fill="1" layer="-1.00" shape="1487.633948,2242.777265 1502.489795,2241.161027 1499.475744,2213.825299 1484.619891,2215.441537 1487.633948,2242.777265"/>
    <poly id="1134316557" type="building" color="255,230,230" fill="1" layer="-1.00" shape="1465.709241,2285.322032 1500.173457,2281.573234 1498.373922,2265.191683 1463.909697,2268.940480 1465.709241,2285.322032"/>
    <poly id="1134316558" type="building" color="255,230,230" fill="1" layer="-1.00" shape="1627.258011,2210.665218 1636.840643,2209.621437 1634.355137,2187.027728 1624.772502,2188.071509 1627.258011,2210.665218"/>
    <poly id="1134316560" type="building" color="255,230,230" fill="1" layer="-1.00" shape="1680.734130,2205.890554 1684.096790,2236.420793 1702.198552,2234.456591 1698.824820,2203.926371 1680.734130,2205.890554"/>
    <poly id="1134316561" type="building" color="255,230,230" fill="1" layer="-1.00" shape="1706.055386,2235.036263 1723.248723,2233.161991 1719.604940,2200.089411 1702.411577,2201.952627 1706.055386,2235.036263"/>
    <poly id="1134320253" type="building" color="255,230,230" fill="1" layer="-1.00" shape="1737.971036,2666.895472 1777.983320,2661.402013 1776.279145,2649.110902 1736.255773,2654.604379 1737.971036,2666.895472"/>
    <poly id="1134320254" type="building" color="255,230,230" fill="1" layer="-1.00" shape="1509.948437,2350.931550 1520.494370,2349.488174 1517.646495,2328.929294 1507.089478,2330.372688 1509.948437,2350.931550"/>
    <poly id="1134320255" type="building" color="255,230,230" fill="1" layer="-1.00" shape="1576.938069,2330.015601 1583.706518,2329.086952 1581.217441,2311.114511 1574.437911,2312.043178 1576.938069,2330.015601"/>
    <poly id="1134320256" type="building" color="255,230,230" fill="1" layer="-1.00" shape="1620.891195,2315.328413 1630.174270,2314.052947 1628.604670,2302.767681 1619.321593,2304.043146 1620.891195,2315.328413"/>
    <poly id="1134320257" type="building" color="255,230,230" fill="1" layer="-1.00" shape="1646.983474,2368.872671 1659.678456,2367.127314 1656.752325,2346.115281 1644.068419,2347.860620 1646.983474,2368.872671"/>
    <poly id="1134320258" type="building" color="255,230,230" fill="1" layer="-1.00" shape="1736.081329,2329.601667 1748.089513,2327.956947 1745.409907,2308.624973 1733.390657,2310.280767 1736.081329,2329.601667"/>
    <poly id="1134320259" type="building" color="255,230,230" fill="1" layer="-1.00" shape="1830.112124,2584.668374 1860.464787,2580.506309 1858.480426,2566.247749 1828.127756,2570.409814 1830.112124,2584.668374"/>
    <poly id="1134320260" type="building" color="255,230,230" fill="1" layer="-1.00" shape="1550.180670,2419.068306 1561.467624,2416.805607 1557.424192,2396.912016 1546.148314,2399.174696 1550.180670,2419.068306"/>
    <poly id="1134320261" type="building" color="255,230,230" fill="1" layer="-1.00" shape="1656.218160,2473.952678 1668.623833,2471.467061 1664.848534,2452.910767 1652.453938,2455.396366 1656.218160,2473.952678"/>
    <poly id="1134320262" type="building" color="255,230,230" fill="1" layer="-1.00" shape="1653.382870,2556.321921 1663.729238,2554.823609 1661.320334,2538.443053 1650.985044,2539.941347 1653.382870,2556.321921"/>
    <poly id="1134320263" type="building" color="255,230,230" fill="1" layer="-1.00" shape="1671.370858,2559.388202 1683.168461,2557.732750 1679.570419,2532.354829 1667.761731,2534.010299 1671.370858,2559.388202"/>
    <poly id="1134320264" type="building" color="255,230,230" fill="1" layer="-1.00" shape="1665.208787,2517.629978 1679.643419,2515.948121 1675.126734,2477.581303 1660.692075,2479.252104 1665.208787,2517.629978"/>
    <poly id="1134320265" type="building" color="255,230,230" fill="1" layer="-1.00" shape="1656.473564,2447.087022 1669.289908,2445.031908 1665.988118,2424.672771 1653.171753,2426.716829 1656.473564,2447.087022"/>
    <poly id="1134320266" type="building" color="255,230,230" fill="1" layer="-1.00" shape="1641.025024,2452.131453 1652.367824,2450.145070 1647.861204,2424.768628 1636.529462,2426.743938 1641.025024,2452.131453"/>
    <poly id="1134320267" type="building" color="255,230,230" fill="1" layer="-1.00" shape="1782.022527,2528.948743 1796.479549,2527.410597 1792.250041,2488.446311 1777.804109,2489.995494 1782.022527,2528.948743"/>
    <poly id="1134320268" type="building" color="255,230,230" fill="1" layer="-1.00" shape="1705.437251,2039.009512 1718.208868,2036.655992 1716.118626,2025.437907 1703.347007,2027.791426 1705.437251,2039.009512"/>
    <poly id="118454620" type="amenity" color="237,199,199" fill="1" layer="-1.00" shape="1607.947169,2102.959315 1606.255224,2084.587573 1622.717924,2083.090364 1624.409864,2101.462105 1607.947169,2102.959315"/>
    <poly id="136325920" type="leisure" color="207,245,201" fill="1" layer="-2.00" shape="2163.577007,2344.739050 2274.434596,2331.712797 2259.880492,2218.581939 2147.946221,2230.548586 2163.577007,2344.739050"/>
    <poly id="136325920#1" type="sport" color="79,230,125" fill="1" layer="-2.00" shape="2163.577007,2344.739050 2274.434596,2331.712797 2259.880492,2218.581939 2147.946221,2230.548586 2163.577007,2344.739050"/>
    <poly id="241251530" type="landuse" color="194,194,130" fill="1" layer="-3.00" shape="960.827036,2850.628144 876.734108,2671.266122 705.955155,2677.196031 708.732644,2857.001111 960.827036,2850.628144"/>
    <poly id="241253584" type="school" color="237,199,199" fill="1" layer="-2.00" shape="1372.493770,2530.710851 1431.903863,2523.040721 1428.718447,2499.353638 1428.235886,2495.606557 1424.847420,2469.708674 1365.481672,2477.422952 1372.493770,2530.710851"/>
    <poly id="243431987" type="water" color="181,209,209" fill="0" layer="-4.00" shape="1103.742503,2163.206539 1092.045946,2145.403937 1077.073060,2129.685164 1062.774283,2112.881834 1060.047024,2078.094101 1049.250818,2021.429344 1069.321298,1969.843909 1074.019296,1902.109187 1064.350226,1802.933533 1027.329356,1700.253751 968.881546,1578.725947 890.323676,1518.623243 835.080557,1486.762826 789.202030,1476.279832 702.396167,1461.065817 621.535099,1449.391023 566.820953,1429.403727 430.461418,1392.558058 308.315152,1347.397475"/>
    <poly id="280811677" type="building" color="255,230,230" fill="1" layer="-1.00" shape="1694.786897,2337.153553 1710.329506,2335.425683 1706.990274,2305.669302 1691.447659,2307.397172 1694.786897,2337.153553"/>
    <poly id="285931274" type="amenity" color="237,199,199" fill="1" layer="-1.00" shape="562.959893,2336.495899 641.750284,2295.648275 603.826083,2223.461704 507.964541,2273.159884 533.473388,2321.696611 550.533369,2312.846110 562.959893,2336.495899"/>
    <poly id="285932444" type="building" color="255,230,230" fill="1" layer="-1.00" shape="407.405669,2114.587793 378.252706,2114.016676 378.304502,2111.827564 370.282181,2111.674940 369.832653,2134.748910 372.026600,2134.789520 371.546109,2159.245502 425.774329,2160.294946 431.000601,2158.119427 407.405669,2114.587793"/>
    <poly id="285932444#1" type="shop" color="237,199,255" fill="1" layer="-1.00" shape="407.405669,2114.587793 378.252706,2114.016676 378.304502,2111.827564 370.282181,2111.674940 369.832653,2134.748910 372.026600,2134.789520 371.546109,2159.245502 425.774329,2160.294946 431.000601,2158.119427 407.405669,2114.587793"/>
    <poly id="285933761" type="school" color="237,199,199" fill="1" layer="-2.00" shape="370.002476,1982.191136 438.741991,1947.175177 410.674887,1892.783146 341.935303,1927.788070 370.002476,1982.191136"/>
    <poly id="285934679" type="amenity" color="237,199,199" fill="1" layer="-1.00" shape="350.307721,2079.955889 360.981334,2075.272807 358.923871,2070.643861 348.250257,2075.326943 350.307721,2079.955889"/>
    <poly id="285934780" type="leisure" color="207,245,201" fill="1" layer="-2.00" shape="345.062862,1969.938275 359.399034,1962.208849 354.042210,1952.400215 339.706054,1960.140697 345.062862,1969.938275"/>
    <poly id="285934780#1" type="sport" color="79,230,125" fill="1" layer="-2.00" shape="345.062862,1969.938275 359.399034,1962.208849 354.042210,1952.400215 339.706054,1960.140697 345.062862,1969.938275"/>
    <poly id="286245702" type="leisure" color="207,245,201" fill="1" layer="-2.00" shape="1576.962331,1412.694735 1666.562674,1402.245139 1666.293495,1400.244504 1664.439766,1384.570606 1655.002040,1304.432484 1652.170794,1280.435270 1562.570302,1290.895910 1565.412752,1314.948386 1576.962331,1412.694735"/>
    <poly id="286248006" type="school" color="237,199,199" fill="1" layer="-2.00" shape="983.839044,2329.337438 971.187817,2236.070386 1076.094022,2222.034785 1088.734020,2315.301847 983.839044,2329.337438"/>
    <poly id="286248426" type="amenity" color="237,199,199" fill="1" layer="-1.00" shape="915.936835,1718.899060 964.670834,1713.987936 963.116932,1698.822096 960.493126,1673.099841 960.065363,1668.998887 911.331331,1673.910008 915.936835,1718.899060"/>