<?xml version="1.0" encoding="UTF-8"?>

<!-- generated on 2023-03-26 12:00:07.825417 by randomTrips.py v1_16_0+0975-7f84aba9f93
<configuration>
    <end value="50"/>
    <length value="True"/>
    <net-file value="map.net.xml"/>
    <route-file value="map.rou.xml"/>
</configuration>
-->

<routes xmlns:xsi="http://www.w3.org/2001/XMLSchema-instance" xsi:noNamespaceSchemaLocation="http://sumo.dlr.de/xsd/routes_file.xsd">
    <trip id="0" depart="0.00" from="325254149#5" to="-106410245#9"/>
    <trip id="1" depart="1.00" from="-329377919" to="-329377929"/>
    <trip id="2" depart="2.00" from="329373550#1" to="329347591#1"/>
    <trip id="3" depart="3.00" from="735705814#0" to="-136306806"/>
    <trip id="4" depart="4.00" from="-755398689#4" to="-1087238485"/>
    <trip id="5" depart="5.00" from="-329351510" to="115976997#1"/>
    <trip id="6" depart="6.00" from="-106410247#1" to="-329373533#1"/>
    <trip id="7" depart="7.00" from="329296735#5" to="136306805#1"/>
    <trip id="8" depart="8.00" from="-329351510" to="316453242"/>
    <trip id="9" depart="9.00" from="397556482#1" to="-105828985"/>
    <trip id="10" depart="10.00" from="333505340" to="329351515"/>
    <trip id="11" depart="11.00" from="-329708217#0" to="-329296753"/>
    <trip id="12" depart="12.00" from="92879176#1" to="-642633116"/>
    <trip id="13" depart="13.00" from="-136306805#1" to="-238180530#7"/>
    <trip id="14" depart="14.00" from="62077645#2" to="316453242"/>
    <trip id="15" depart="15.00" from="333505340" to="329373540"/>
    <trip id="16" depart="16.00" from="1087238485" to="94559216#1"/>
    <trip id="17" depart="17.00" from="-62077674" to="22702976#0"/>
    <trip id="18" depart="18.00" from="431683960#1" to="325254156"/>
    <trip id="19" depart="19.00" from="62077652#4" to="238180764#0"/>
    <trip id="20" depart="20.00" from="329347612" to="-115976993#4"/>
    <trip id="21" depart="21.00" from="-329351518" to="-485026075#1"/>
    <trip id="22" depart="22.00" from="-136306796#1" to="-329377955"/>
    <trip id="23" depart="23.00" from="-238180530#13" to="-329711804#0"/>
    <trip id="24" depart="24.00" from="316536481#1" to="-92257393#4"/>
    <trip id="25" depart="25.00" from="-62077652#2" to="-329373550#0"/>
    <trip id="26" depart="26.00" from="-329377904" to="92352786#0"/>
    <trip id="27" depart="27.00" from="329296735#1" to="325254149#4"/>
    <trip id="28" depart="28.00" from="-329296737#0" to="329373540"/>
    <trip id="29" depart="29.00" from="-329296735#0" to="-92352786#2"/>
    <trip id="30" depart="30.00" from="94559898#1" to="329296736#2"/>
    <trip id="31" depart="31.00" from="115976998" to="329347608"/>
    <trip id="32" depart="32.00" from="62077645#0" to="329385047#2"/>
    <trip id="33" depart="33.00" from="-329351518" to="-1126005761#1"/>
    <trip id="34" depart="34.00" from="-329695084#7" to="-329698219#2"/>
    <trip id="35" depart="35.00" from="-329347608" to="92352804#1"/>
    <trip id="36" depart="36.00" from="642620330#0" to="-62077652#0"/>
    <trip id="37" depart="37.00" from="329296737#1" to="-92352809#4"/>
    <trip id="38" depart="38.00" from="845138563#1" to="105828984#1"/>
    <trip id="39" depart="39.00" from="-329373550#1" to="-329385059#2"/>
    <trip id="40" depart="40.00" from="115977002" to="-329698218"/>
    <trip id="41" depart="41.00" from="136306801#0" to="643851045#1"/>
    <trip id="42" depart="42.00" from="-642620330#0" to="-329377920"/>
    <trip id="43" depart="43.00" from="94559902#0" to="115977002"/>
    <trip id="44" depart="44.00" from="-136306804" to="-115976995#1"/>
    <trip id="45" depart="45.00" from="-238180617" to="325304814#2"/>
    <trip id="46" depart="46.00" from="329708205" to="-94559216#0"/>
    <trip id="47" depart="47.00" from="-118709678" to="-92352786#3"/>
    <trip id="48" depart="48.00" from="94559901" to="136306796#0"/>
    <trip id="49" depart="49.00" from="94415624" to="62077652#0"/>
</routes>
